[Config CrossTraffic25x25x2Experiment]

network = SatSGP4Network
sim-time-limit = 30s
SatSGP4Network.numOfShells = 2
SatSGP4Network.shell[0].shellIndex = 0
SatSGP4Network.shell[0].configurator.loadFiles = false

SatSGP4Network.shell[0].satellite[*].mobility.typename = "SatelliteMobility"
SatSGP4Network.shell[0].groundStation[*].mobility.typename = "GroundStationMobility"

SatSGP4Network.shell[0].constraintAreaMinX = 0m
SatSGP4Network.shell[0].constraintAreaMaxX = 2160m

SatSGP4Network.shell[0].constraintAreaMinY = 0m
SatSGP4Network.shell[0].constraintAreaMaxY = 1080m

SatSGP4Network.shell[0].constraintAreaMinZ = 0m
SatSGP4Network.shell[0].constraintAreaMaxZ = 0m

## Routing settings
SatSGP4Network.shell[0].*.ipv4.typename = "LeoIpv4NetworkLayer"
SatSGP4Network.shell[0].*.ipv4.queue.packetCapacity = 5
SatSGP4Network.shell[0].*.ipv4.queuePopper.processingTime = 0ms
SatSGP4Network.shell[0].*.ipv4.arp.typename = "GlobalArp"
SatSGP4Network.shell[0].*.ipv4.routingTable.netmaskRoutes = ""
#
SatSGP4Network.shell[0].groundStation[*].mobility.initFromDisplayString = false
SatSGP4Network.shell[0].groundStation[*].mobility.updateFromDisplayString  = false
#

SatSGP4Network.shell[0].configurator.config = xml("<config><interface hosts='**' address='10.x.x.x' netmask='255.x.x.x'/><autoroute metric='delay'/></config>") #<autoroute metric='errorRate'/>
SatSGP4Network.shell[0].configurator.addStaticRoutes = true
SatSGP4Network.shell[0].configurator.optimizeRoutes = false
SatSGP4Network.shell[0].configurator.enableInterSatelliteLinks = true  #custom parameter

SatSGP4Network.shell[0].*.forwarding = true

SatSGP4Network.shell[0].visualizer.dataLinkVisualizer.packetFilter = "*"
SatSGP4Network.shell[0].visualizer.networkRouteVisualizer.displayRoutes = true
SatSGP4Network.shell[0].visualizer.networkRouteVisualizer.packetFilter = "*"##"UDPData*"
SatSGP4Network.shell[0].visualizer.routingTableVisualizer.destinationFilter = "*"#"satellite[125]"
SatSGP4Network.shell[0].visualizer.statisticVisualizer.sourceFilter = "**.app[*]"
SatSGP4Network.shell[0].visualizer.statisticVisualizer.signalName = "rtt"
SatSGP4Network.shell[0].visualizer.statisticVisualizer.unit = "s"


SatSGP4Network.shell[0].ppp[*].queue.typename = "DropTailQueue"
SatSGP4Network.shell[0].ppp[*].queue.packetCapacity = 100
SatSGP4Network.shell[0].ipv4.configurator.typename = "LeoIpv4NodeConfigurator"

SatSGP4Network.shell[0].satellite[*].NoradModule.satIndex = parentIndex()
SatSGP4Network.shell[0].satellite[*].NoradModule.satName = "sat"  #Doesnt matter in this instance
SatSGP4Network.shell[0].satellite[*].**.bitrate = 10Mbps

SatSGP4Network.shell[0].satellite[*].mobility.updateInterval = 15s
SatSGP4Network.shell[0].numOfSats = 625
SatSGP4Network.shell[0].satsPerPlane = 25
SatSGP4Network.shell[0].numOfPlanes = 25
SatSGP4Network.shell[0].numOfGS = 5
SatSGP4Network.shell[0].alt = 550
SatSGP4Network.shell[0].incl = 90
SatSGP4Network.shell[0].satellite[*].NoradModule.inclination = 90*0.0174533
SatSGP4Network.shell[0].satellite[*].NoradModule.altitude = 550

SatSGP4Network.shell[0].**.vector-recording = true
SatSGP4Network.shell[0].**.scalar-recording = true


SatSGP4Network.shell[0].groundStation[0].mobility.latitude = 47.69419
SatSGP4Network.shell[0].groundStation[0].mobility.longitude = -122.03213
SatSGP4Network.shell[0].groundStation[0].cityName =  NW0

SatSGP4Network.shell[0].groundStation[0].numApps = 1
SatSGP4Network.shell[0].groundStation[0].app[0].typename = "PingApp"
SatSGP4Network.shell[0].groundStation[0].app[0].startTime = .0001s
SatSGP4Network.shell[0].groundStation[0].app[0].destAddr = "*"
SatSGP4Network.shell[0].groundStation[0].app[0].sendInterval = uniform(.0001s,.5s)
SatSGP4Network.shell[0].groundStation[1].mobility.latitude = 48.34525
SatSGP4Network.shell[0].groundStation[1].mobility.longitude = -116.43933
SatSGP4Network.shell[0].groundStation[1].cityName =  NW1

SatSGP4Network.shell[0].groundStation[1].numApps = 1
SatSGP4Network.shell[0].groundStation[1].app[0].typename = "PingApp"
SatSGP4Network.shell[0].groundStation[1].app[0].startTime = .0001s
SatSGP4Network.shell[0].groundStation[1].app[0].destAddr = "*"
SatSGP4Network.shell[0].groundStation[1].app[0].sendInterval = uniform(.0001s,.5s)
SatSGP4Network.shell[0].groundStation[2].mobility.latitude = 48.2033
SatSGP4Network.shell[0].groundStation[2].mobility.longitude = -111.94527
SatSGP4Network.shell[0].groundStation[2].cityName =  NW2

SatSGP4Network.shell[0].groundStation[2].numApps = 1
SatSGP4Network.shell[0].groundStation[2].app[0].typename = "PingApp"
SatSGP4Network.shell[0].groundStation[2].app[0].startTime = .0001s
SatSGP4Network.shell[0].groundStation[2].app[0].destAddr = "*"
SatSGP4Network.shell[0].groundStation[2].app[0].sendInterval = uniform(.0001s,.5s)
SatSGP4Network.shell[0].groundStation[3].mobility.latitude = 46.03897
SatSGP4Network.shell[0].groundStation[3].mobility.longitude = -122.80822
SatSGP4Network.shell[0].groundStation[3].cityName =  NW3

SatSGP4Network.shell[0].groundStation[3].numApps = 1
SatSGP4Network.shell[0].groundStation[3].app[0].typename = "PingApp"
SatSGP4Network.shell[0].groundStation[3].app[0].startTime = .0001s
SatSGP4Network.shell[0].groundStation[3].app[0].destAddr = "*"
SatSGP4Network.shell[0].groundStation[3].app[0].sendInterval = uniform(.0001s,.5s)
SatSGP4Network.shell[0].groundStation[4].mobility.latitude = 46.12727
SatSGP4Network.shell[0].groundStation[4].mobility.longitude = -119.6843
SatSGP4Network.shell[0].groundStation[4].cityName =  NW4

SatSGP4Network.shell[0].groundStation[4].numApps = 1
SatSGP4Network.shell[0].groundStation[4].app[0].typename = "PingApp"
SatSGP4Network.shell[0].groundStation[4].app[0].startTime = .0001s
SatSGP4Network.shell[0].groundStation[4].app[0].destAddr = "*"
SatSGP4Network.shell[0].groundStation[4].app[0].sendInterval = uniform(.0001s,.5s)
SatSGP4Network.shell[0].groundStation[5].mobility.latitude = 45.92405
SatSGP4Network.shell[0].groundStation[5].mobility.longitude = -112.51319
SatSGP4Network.shell[0].groundStation[5].cityName =  NW5

SatSGP4Network.shell[0].groundStation[5].numApps = 1
SatSGP4Network.shell[0].groundStation[5].app[0].typename = "PingApp"
SatSGP4Network.shell[0].groundStation[5].app[0].startTime = .0001s
SatSGP4Network.shell[0].groundStation[5].app[0].destAddr = "*"
SatSGP4Network.shell[0].groundStation[5].app[0].sendInterval = uniform(.0001s,.5s)
SatSGP4Network.shell[0].groundStation[6].mobility.latitude = 43.24841
SatSGP4Network.shell[0].groundStation[6].mobility.longitude = -124.38119
SatSGP4Network.shell[0].groundStation[6].cityName =  NW6

SatSGP4Network.shell[0].groundStation[6].numApps = 1
SatSGP4Network.shell[0].groundStation[6].app[0].typename = "PingApp"
SatSGP4Network.shell[0].groundStation[6].app[0].startTime = .0001s
SatSGP4Network.shell[0].groundStation[6].app[0].destAddr = "*"
SatSGP4Network.shell[0].groundStation[6].app[0].sendInterval = uniform(.0001s,.5s)
SatSGP4Network.shell[0].groundStation[7].mobility.latitude = 41.644
SatSGP4Network.shell[0].groundStation[7].mobility.longitude = -121.32997
SatSGP4Network.shell[0].groundStation[7].cityName =  NW7

SatSGP4Network.shell[0].groundStation[7].numApps = 1
SatSGP4Network.shell[0].groundStation[7].app[0].typename = "PingApp"
SatSGP4Network.shell[0].groundStation[7].app[0].startTime = .0001s
SatSGP4Network.shell[0].groundStation[7].app[0].destAddr = "*"
SatSGP4Network.shell[0].groundStation[7].app[0].sendInterval = uniform(.0001s,.5s)
SatSGP4Network.shell[0].groundStation[8].mobility.latitude = 39.057
SatSGP4Network.shell[0].groundStation[8].mobility.longitude = -122.06
SatSGP4Network.shell[0].groundStation[8].cityName =  NW8

SatSGP4Network.shell[0].groundStation[8].numApps = 1
SatSGP4Network.shell[0].groundStation[8].app[0].typename = "PingApp"
SatSGP4Network.shell[0].groundStation[8].app[0].startTime = .0001s
SatSGP4Network.shell[0].groundStation[8].app[0].destAddr = "*"
SatSGP4Network.shell[0].groundStation[8].app[0].sendInterval = uniform(.0001s,.5s)
SatSGP4Network.shell[0].groundStation[9].mobility.latitude = 38.875
SatSGP4Network.shell[0].groundStation[9].mobility.longitude = -121.70705
SatSGP4Network.shell[0].groundStation[9].cityName =  NW9

SatSGP4Network.shell[0].groundStation[9].numApps = 1
SatSGP4Network.shell[0].groundStation[9].app[0].typename = "PingApp"
SatSGP4Network.shell[0].groundStation[9].app[0].startTime = .0001s
SatSGP4Network.shell[0].groundStation[9].app[0].destAddr = "*"
SatSGP4Network.shell[0].groundStation[9].app[0].sendInterval = uniform(.0001s,.5s)
SatSGP4Network.shell[0].groundStation[10].mobility.latitude = 46.40838
SatSGP4Network.shell[0].groundStation[10].mobility.longitude = -103.11458
SatSGP4Network.shell[0].groundStation[10].cityName =  NC0

SatSGP4Network.shell[0].groundStation[10].numApps = 1
SatSGP4Network.shell[0].groundStation[10].app[0].typename = "PingApp"
SatSGP4Network.shell[0].groundStation[10].app[0].startTime = .0001s
SatSGP4Network.shell[0].groundStation[10].app[0].destAddr = "*"
SatSGP4Network.shell[0].groundStation[10].app[0].sendInterval = uniform(.0001s,.5s)
SatSGP4Network.shell[0].groundStation[11].mobility.latitude = 47.15169
SatSGP4Network.shell[0].groundStation[11].mobility.longitude = -97.40888
SatSGP4Network.shell[0].groundStation[11].cityName =  NC1

SatSGP4Network.shell[0].groundStation[11].numApps = 1
SatSGP4Network.shell[0].groundStation[11].app[0].typename = "PingApp"
SatSGP4Network.shell[0].groundStation[11].app[0].startTime = .0001s
SatSGP4Network.shell[0].groundStation[11].app[0].destAddr = "*"
SatSGP4Network.shell[0].groundStation[11].app[0].sendInterval = uniform(.0001s,.5s)
SatSGP4Network.shell[0].groundStation[12].mobility.latitude = 46.97891
SatSGP4Network.shell[0].groundStation[12].mobility.longitude = -96.25802
SatSGP4Network.shell[0].groundStation[12].cityName =  NC2

SatSGP4Network.shell[0].groundStation[12].numApps = 1
SatSGP4Network.shell[0].groundStation[12].app[0].typename = "PingApp"
SatSGP4Network.shell[0].groundStation[12].app[0].startTime = .0001s
SatSGP4Network.shell[0].groundStation[12].app[0].destAddr = "*"
SatSGP4Network.shell[0].groundStation[12].app[0].sendInterval = uniform(.0001s,.5s)
SatSGP4Network.shell[0].groundStation[13].mobility.latitude = 47.59316
SatSGP4Network.shell[0].groundStation[13].mobility.longitude = -93.69252
SatSGP4Network.shell[0].groundStation[13].cityName =  NC3

SatSGP4Network.shell[0].groundStation[13].numApps = 1
SatSGP4Network.shell[0].groundStation[13].app[0].typename = "PingApp"
SatSGP4Network.shell[0].groundStation[13].app[0].startTime = .0001s
SatSGP4Network.shell[0].groundStation[13].app[0].destAddr = "*"
SatSGP4Network.shell[0].groundStation[13].app[0].sendInterval = uniform(.0001s,.5s)
SatSGP4Network.shell[0].groundStation[14].mobility.latitude = 44.40633
SatSGP4Network.shell[0].groundStation[14].mobility.longitude = -90.81427
SatSGP4Network.shell[0].groundStation[14].cityName =  NC4

SatSGP4Network.shell[0].groundStation[14].numApps = 1
SatSGP4Network.shell[0].groundStation[14].app[0].typename = "PingApp"
SatSGP4Network.shell[0].groundStation[14].app[0].startTime = .0001s
SatSGP4Network.shell[0].groundStation[14].app[0].destAddr = "*"
SatSGP4Network.shell[0].groundStation[14].app[0].sendInterval = uniform(.0001s,.5s)
SatSGP4Network.shell[0].groundStation[15].mobility.latitude = 45.90861
SatSGP4Network.shell[0].groundStation[15].mobility.longitude = -86.48358
SatSGP4Network.shell[0].groundStation[15].cityName =  NC5

SatSGP4Network.shell[0].groundStation[15].numApps = 1
SatSGP4Network.shell[0].groundStation[15].app[0].typename = "PingApp"
SatSGP4Network.shell[0].groundStation[15].app[0].startTime = .0001s
SatSGP4Network.shell[0].groundStation[15].app[0].destAddr = "*"
SatSGP4Network.shell[0].groundStation[15].app[0].sendInterval = uniform(.0001s,.5s)
SatSGP4Network.shell[0].groundStation[16].mobility.latitude = 45.07325
SatSGP4Network.shell[0].groundStation[16].mobility.longitude = -83.90041
SatSGP4Network.shell[0].groundStation[16].cityName =  NC6

SatSGP4Network.shell[0].groundStation[16].numApps = 1
SatSGP4Network.shell[0].groundStation[16].app[0].typename = "PingApp"
SatSGP4Network.shell[0].groundStation[16].app[0].startTime = .0001s
SatSGP4Network.shell[0].groundStation[16].app[0].destAddr = "*"
SatSGP4Network.shell[0].groundStation[16].app[0].sendInterval = uniform(.0001s,.5s)
SatSGP4Network.shell[0].groundStation[17].mobility.latitude = 41.43355
SatSGP4Network.shell[0].groundStation[17].mobility.longitude = -80.33322
SatSGP4Network.shell[0].groundStation[17].cityName =  NE0

SatSGP4Network.shell[0].groundStation[17].numApps = 1
SatSGP4Network.shell[0].groundStation[17].app[0].typename = "PingApp"
SatSGP4Network.shell[0].groundStation[17].app[0].startTime = .0001s
SatSGP4Network.shell[0].groundStation[17].app[0].destAddr = "*"
SatSGP4Network.shell[0].groundStation[17].app[0].sendInterval = uniform(.0001s,.5s)
SatSGP4Network.shell[0].groundStation[18].mobility.latitude = 43.16655
SatSGP4Network.shell[0].groundStation[18].mobility.longitude = -78.75511
SatSGP4Network.shell[0].groundStation[18].cityName =  NE1

SatSGP4Network.shell[0].groundStation[18].numApps = 1
SatSGP4Network.shell[0].groundStation[18].app[0].typename = "PingApp"
SatSGP4Network.shell[0].groundStation[18].app[0].startTime = .0001s
SatSGP4Network.shell[0].groundStation[18].app[0].destAddr = "*"
SatSGP4Network.shell[0].groundStation[18].app[0].sendInterval = uniform(.0001s,.5s)
SatSGP4Network.shell[0].groundStation[19].mobility.latitude = 44.78997
SatSGP4Network.shell[0].groundStation[19].mobility.longitude = -73.48
SatSGP4Network.shell[0].groundStation[19].cityName =  NE2

SatSGP4Network.shell[0].groundStation[19].numApps = 1
SatSGP4Network.shell[0].groundStation[19].app[0].typename = "PingApp"
SatSGP4Network.shell[0].groundStation[19].app[0].startTime = .0001s
SatSGP4Network.shell[0].groundStation[19].app[0].destAddr = "*"
SatSGP4Network.shell[0].groundStation[19].app[0].sendInterval = uniform(.0001s,.5s)
SatSGP4Network.shell[0].groundStation[20].mobility.latitude = 46.91491
SatSGP4Network.shell[0].groundStation[20].mobility.longitude = -67.91952
SatSGP4Network.shell[0].groundStation[20].cityName =  NE3

SatSGP4Network.shell[0].groundStation[20].numApps = 1
SatSGP4Network.shell[0].groundStation[20].app[0].typename = "PingApp"
SatSGP4Network.shell[0].groundStation[20].app[0].startTime = .0001s
SatSGP4Network.shell[0].groundStation[20].app[0].destAddr = "*"
SatSGP4Network.shell[0].groundStation[20].app[0].sendInterval = uniform(.0001s,.5s)
SatSGP4Network.shell[0].groundStation[21].mobility.latitude = 44.41202
SatSGP4Network.shell[0].groundStation[21].mobility.longitude = -71.73183
SatSGP4Network.shell[0].groundStation[21].cityName =  NE4

SatSGP4Network.shell[0].groundStation[21].numApps = 1
SatSGP4Network.shell[0].groundStation[21].app[0].typename = "PingApp"
SatSGP4Network.shell[0].groundStation[21].app[0].startTime = .0001s
SatSGP4Network.shell[0].groundStation[21].app[0].destAddr = "*"
SatSGP4Network.shell[0].groundStation[21].app[0].sendInterval = uniform(.0001s,.5s)
SatSGP4Network.shell[0].groundStation[22].mobility.latitude = 44.53097
SatSGP4Network.shell[0].groundStation[22].mobility.longitude = -68.224
SatSGP4Network.shell[0].groundStation[22].cityName =  NE5

SatSGP4Network.shell[0].groundStation[22].numApps = 1
SatSGP4Network.shell[0].groundStation[22].app[0].typename = "PingApp"
SatSGP4Network.shell[0].groundStation[22].app[0].startTime = .0001s
SatSGP4Network.shell[0].groundStation[22].app[0].destAddr = "*"
SatSGP4Network.shell[0].groundStation[22].app[0].sendInterval = uniform(.0001s,.5s)
SatSGP4Network.shell[0].groundStation[23].mobility.latitude = 41.54502
SatSGP4Network.shell[0].groundStation[23].mobility.longitude = -73.35402
SatSGP4Network.shell[0].groundStation[23].cityName =  NE6

SatSGP4Network.shell[0].groundStation[23].numApps = 1
SatSGP4Network.shell[0].groundStation[23].app[0].typename = "PingApp"
SatSGP4Network.shell[0].groundStation[23].app[0].startTime = .0001s
SatSGP4Network.shell[0].groundStation[23].app[0].destAddr = "*"
SatSGP4Network.shell[0].groundStation[23].app[0].sendInterval = uniform(.0001s,.5s)
SatSGP4Network.shell[0].groundStation[24].mobility.latitude = 41.0925
SatSGP4Network.shell[0].groundStation[24].mobility.longitude = -110.84261
SatSGP4Network.shell[0].groundStation[24].cityName =  SW0

SatSGP4Network.shell[0].groundStation[24].numApps = 1
SatSGP4Network.shell[0].groundStation[24].app[0].typename = "PingApp"
SatSGP4Network.shell[0].groundStation[24].app[0].startTime = .0001s
SatSGP4Network.shell[0].groundStation[24].app[0].destAddr = "*"
SatSGP4Network.shell[0].groundStation[24].app[0].sendInterval = uniform(.0001s,.5s)
SatSGP4Network.shell[0].groundStation[25].mobility.latitude = 40.07622
SatSGP4Network.shell[0].groundStation[25].mobility.longitude = -112.35472
SatSGP4Network.shell[0].groundStation[25].cityName =  SW1

SatSGP4Network.shell[0].groundStation[25].numApps = 1
SatSGP4Network.shell[0].groundStation[25].app[0].typename = "PingApp"
SatSGP4Network.shell[0].groundStation[25].app[0].startTime = .0001s
SatSGP4Network.shell[0].groundStation[25].app[0].destAddr = "*"
SatSGP4Network.shell[0].groundStation[25].app[0].sendInterval = uniform(.0001s,.5s)
SatSGP4Network.shell[0].groundStation[26].mobility.latitude = 37.78363
SatSGP4Network.shell[0].groundStation[26].mobility.longitude = -114.69269
SatSGP4Network.shell[0].groundStation[26].cityName =  SW2

SatSGP4Network.shell[0].groundStation[26].numApps = 1
SatSGP4Network.shell[0].groundStation[26].app[0].typename = "PingApp"
SatSGP4Network.shell[0].groundStation[26].app[0].startTime = .0001s
SatSGP4Network.shell[0].groundStation[26].app[0].destAddr = "*"
SatSGP4Network.shell[0].groundStation[26].app[0].sendInterval = uniform(.0001s,.5s)
SatSGP4Network.shell[0].groundStation[27].mobility.latitude = 34.60402
SatSGP4Network.shell[0].groundStation[27].mobility.longitude = -117.45436
SatSGP4Network.shell[0].groundStation[27].cityName =  SW3

SatSGP4Network.shell[0].groundStation[27].numApps = 1
SatSGP4Network.shell[0].groundStation[27].app[0].typename = "PingApp"
SatSGP4Network.shell[0].groundStation[27].app[0].startTime = .0001s
SatSGP4Network.shell[0].groundStation[27].app[0].destAddr = "*"
SatSGP4Network.shell[0].groundStation[27].app[0].sendInterval = uniform(.0001s,.5s)
SatSGP4Network.shell[0].groundStation[28].mobility.latitude = 33.91749
SatSGP4Network.shell[0].groundStation[28].mobility.longitude = -118.32811
SatSGP4Network.shell[0].groundStation[28].cityName =  SW4

SatSGP4Network.shell[0].groundStation[28].numApps = 1
SatSGP4Network.shell[0].groundStation[28].app[0].typename = "PingApp"
SatSGP4Network.shell[0].groundStation[28].app[0].startTime = .0001s
SatSGP4Network.shell[0].groundStation[28].app[0].destAddr = "*"
SatSGP4Network.shell[0].groundStation[28].app[0].sendInterval = uniform(.0001s,.5s)
SatSGP4Network.shell[0].groundStation[29].mobility.latitude = 32.8155
SatSGP4Network.shell[0].groundStation[29].mobility.longitude = -113.79805
SatSGP4Network.shell[0].groundStation[29].cityName =  SW5

SatSGP4Network.shell[0].groundStation[29].numApps = 1
SatSGP4Network.shell[0].groundStation[29].app[0].typename = "PingApp"
SatSGP4Network.shell[0].groundStation[29].app[0].startTime = .0001s
SatSGP4Network.shell[0].groundStation[29].app[0].destAddr = "*"
SatSGP4Network.shell[0].groundStation[29].app[0].sendInterval = uniform(.0001s,.5s)
SatSGP4Network.shell[0].groundStation[30].mobility.latitude = 40.33366
SatSGP4Network.shell[0].groundStation[30].mobility.longitude = -95.81527
SatSGP4Network.shell[0].groundStation[30].cityName =  SC0

SatSGP4Network.shell[0].groundStation[30].numApps = 1
SatSGP4Network.shell[0].groundStation[30].app[0].typename = "PingApp"
SatSGP4Network.shell[0].groundStation[30].app[0].startTime = .0001s
SatSGP4Network.shell[0].groundStation[30].app[0].destAddr = "*"
SatSGP4Network.shell[0].groundStation[30].app[0].sendInterval = uniform(.0001s,.5s)
SatSGP4Network.shell[0].groundStation[31].mobility.latitude = 38.229
SatSGP4Network.shell[0].groundStation[31].mobility.longitude = -97.92197
SatSGP4Network.shell[0].groundStation[31].cityName =  SC1

SatSGP4Network.shell[0].groundStation[31].numApps = 1
SatSGP4Network.shell[0].groundStation[31].app[0].typename = "PingApp"
SatSGP4Network.shell[0].groundStation[31].app[0].startTime = .0001s
SatSGP4Network.shell[0].groundStation[31].app[0].destAddr = "*"
SatSGP4Network.shell[0].groundStation[31].app[0].sendInterval = uniform(.0001s,.5s)
SatSGP4Network.shell[0].groundStation[32].mobility.latitude = 38.63516
SatSGP4Network.shell[0].groundStation[32].mobility.longitude = -91.11602
SatSGP4Network.shell[0].groundStation[32].cityName =  SC2

SatSGP4Network.shell[0].groundStation[32].numApps = 1
SatSGP4Network.shell[0].groundStation[32].app[0].typename = "PingApp"
SatSGP4Network.shell[0].groundStation[32].app[0].startTime = .0001s
SatSGP4Network.shell[0].groundStation[32].app[0].destAddr = "*"
SatSGP4Network.shell[0].groundStation[32].app[0].sendInterval = uniform(.0001s,.5s)
SatSGP4Network.shell[0].groundStation[33].mobility.latitude = 35.80797
SatSGP4Network.shell[0].groundStation[33].mobility.longitude = -102.03186
SatSGP4Network.shell[0].groundStation[33].cityName =  SC3

SatSGP4Network.shell[0].groundStation[33].numApps = 1
SatSGP4Network.shell[0].groundStation[33].app[0].typename = "PingApp"
SatSGP4Network.shell[0].groundStation[33].app[0].startTime = .0001s
SatSGP4Network.shell[0].groundStation[33].app[0].destAddr = "*"
SatSGP4Network.shell[0].groundStation[33].app[0].sendInterval = uniform(.0001s,.5s)
SatSGP4Network.shell[0].groundStation[34].mobility.latitude = 34.2685
SatSGP4Network.shell[0].groundStation[34].mobility.longitude = -97.21316
SatSGP4Network.shell[0].groundStation[34].cityName =  SC4

SatSGP4Network.shell[0].groundStation[34].numApps = 1
SatSGP4Network.shell[0].groundStation[34].app[0].typename = "PingApp"
SatSGP4Network.shell[0].groundStation[34].app[0].startTime = .0001s
SatSGP4Network.shell[0].groundStation[34].app[0].destAddr = "*"
SatSGP4Network.shell[0].groundStation[34].app[0].sendInterval = uniform(.0001s,.5s)
SatSGP4Network.shell[0].groundStation[35].mobility.latitude = 31.40491
SatSGP4Network.shell[0].groundStation[35].mobility.longitude = -97.43813
SatSGP4Network.shell[0].groundStation[35].cityName =  SC5

SatSGP4Network.shell[0].groundStation[35].numApps = 1
SatSGP4Network.shell[0].groundStation[35].app[0].typename = "PingApp"
SatSGP4Network.shell[0].groundStation[35].app[0].startTime = .0001s
SatSGP4Network.shell[0].groundStation[35].app[0].destAddr = "*"
SatSGP4Network.shell[0].groundStation[35].app[0].sendInterval = uniform(.0001s,.5s)
SatSGP4Network.shell[0].groundStation[36].mobility.latitude = 30.194
SatSGP4Network.shell[0].groundStation[36].mobility.longitude = -102.89
SatSGP4Network.shell[0].groundStation[36].cityName =  SC6

SatSGP4Network.shell[0].groundStation[36].numApps = 1
SatSGP4Network.shell[0].groundStation[36].app[0].typename = "PingApp"
SatSGP4Network.shell[0].groundStation[36].app[0].startTime = .0001s
SatSGP4Network.shell[0].groundStation[36].app[0].destAddr = "*"
SatSGP4Network.shell[0].groundStation[36].app[0].sendInterval = uniform(.0001s,.5s)
SatSGP4Network.shell[0].groundStation[37].mobility.latitude = 29.85986
SatSGP4Network.shell[0].groundStation[37].mobility.longitude = -94.31233
SatSGP4Network.shell[0].groundStation[37].cityName =  SC7

SatSGP4Network.shell[0].groundStation[37].numApps = 1
SatSGP4Network.shell[0].groundStation[37].app[0].typename = "PingApp"
SatSGP4Network.shell[0].groundStation[37].app[0].startTime = .0001s
SatSGP4Network.shell[0].groundStation[37].app[0].destAddr = "*"
SatSGP4Network.shell[0].groundStation[37].app[0].sendInterval = uniform(.0001s,.5s)
SatSGP4Network.shell[0].groundStation[38].mobility.latitude = 25.99069
SatSGP4Network.shell[0].groundStation[38].mobility.longitude = -97.18275
SatSGP4Network.shell[0].groundStation[38].cityName =  SC8

SatSGP4Network.shell[0].groundStation[38].numApps = 1
SatSGP4Network.shell[0].groundStation[38].app[0].typename = "PingApp"
SatSGP4Network.shell[0].groundStation[38].app[0].startTime = .0001s
SatSGP4Network.shell[0].groundStation[38].app[0].destAddr = "*"
SatSGP4Network.shell[0].groundStation[38].app[0].sendInterval = uniform(.0001s,.5s)
SatSGP4Network.shell[0].groundStation[39].mobility.latitude = 35.19724
SatSGP4Network.shell[0].groundStation[39].mobility.longitude = -85.666
SatSGP4Network.shell[0].groundStation[39].cityName = SE0

SatSGP4Network.shell[0].groundStation[39].numApps = 1
SatSGP4Network.shell[0].groundStation[39].app[0].typename = "PingApp"
SatSGP4Network.shell[0].groundStation[39].app[0].startTime = .0001s
SatSGP4Network.shell[0].groundStation[39].app[0].destAddr = "*"
SatSGP4Network.shell[0].groundStation[39].app[0].sendInterval = uniform(.0001s,.5s)
SatSGP4Network.shell[0].groundStation[40].mobility.latitude = 34.9853
SatSGP4Network.shell[0].groundStation[40].mobility.longitude = -81.73308
SatSGP4Network.shell[0].groundStation[40].cityName = SE1

SatSGP4Network.shell[0].groundStation[40].numApps = 1
SatSGP4Network.shell[0].groundStation[40].app[0].typename = "PingApp"
SatSGP4Network.shell[0].groundStation[40].app[0].startTime = .0001s
SatSGP4Network.shell[0].groundStation[40].app[0].destAddr = "*"
SatSGP4Network.shell[0].groundStation[40].app[0].sendInterval = uniform(.0001s,.5s)
SatSGP4Network.shell[0].groundStation[41].mobility.latitude = 35.89536
SatSGP4Network.shell[0].groundStation[41].mobility.longitude = -79.22488
SatSGP4Network.shell[0].groundStation[41].cityName = SE2

SatSGP4Network.shell[0].groundStation[41].numApps = 1
SatSGP4Network.shell[0].groundStation[41].app[0].typename = "PingApp"
SatSGP4Network.shell[0].groundStation[41].app[0].startTime = .0001s
SatSGP4Network.shell[0].groundStation[41].app[0].destAddr = "*"
SatSGP4Network.shell[0].groundStation[41].app[0].sendInterval = uniform(.0001s,.5s)
SatSGP4Network.shell[0].groundStation[42].mobility.latitude = 36.47063
SatSGP4Network.shell[0].groundStation[42].mobility.longitude = -78.17338
SatSGP4Network.shell[0].groundStation[42].cityName = SE3

SatSGP4Network.shell[0].groundStation[42].numApps = 1
SatSGP4Network.shell[0].groundStation[42].app[0].typename = "PingApp"
SatSGP4Network.shell[0].groundStation[42].app[0].startTime = .0001s
SatSGP4Network.shell[0].groundStation[42].app[0].destAddr = "*"
SatSGP4Network.shell[0].groundStation[42].app[0].sendInterval = uniform(.0001s,.5s)
SatSGP4Network.shell[0].groundStation[43].mobility.latitude = 30.567
SatSGP4Network.shell[0].groundStation[43].mobility.longitude = -87.646
SatSGP4Network.shell[0].groundStation[43].cityName = SE4

SatSGP4Network.shell[0].groundStation[43].numApps = 1
SatSGP4Network.shell[0].groundStation[43].app[0].typename = "PingApp"
SatSGP4Network.shell[0].groundStation[43].app[0].startTime = .0001s
SatSGP4Network.shell[0].groundStation[43].app[0].destAddr = "*"
SatSGP4Network.shell[0].groundStation[43].app[0].sendInterval = uniform(.0001s,.5s)
SatSGP4Network.shell[0].groundStation[44].mobility.latitude = 31.68216
SatSGP4Network.shell[0].groundStation[44].mobility.longitude = -82.26897
SatSGP4Network.shell[0].groundStation[44].cityName = SE5

SatSGP4Network.shell[0].groundStation[44].numApps = 1
SatSGP4Network.shell[0].groundStation[44].app[0].typename = "PingApp"
SatSGP4Network.shell[0].groundStation[44].app[0].startTime = .0001s
SatSGP4Network.shell[0].groundStation[44].app[0].destAddr = "*"
SatSGP4Network.shell[0].groundStation[44].app[0].sendInterval = uniform(.0001s,.5s)
SatSGP4Network.shell[0].groundStation[45].mobility.latitude = 27.01966
SatSGP4Network.shell[0].groundStation[45].mobility.longitude = -81.76202
SatSGP4Network.shell[0].groundStation[45].cityName = SE6

SatSGP4Network.shell[0].groundStation[45].numApps = 1
SatSGP4Network.shell[0].groundStation[45].app[0].typename = "PingApp"
SatSGP4Network.shell[0].groundStation[45].app[0].startTime = .0001s
SatSGP4Network.shell[0].groundStation[45].app[0].destAddr = "*"
SatSGP4Network.shell[0].groundStation[45].app[0].sendInterval = uniform(.0001s,.5s)
 
SatSGP4Network.shell[1].shellIndex = 1
SatSGP4Network.shell[1].configurator.loadFiles = false

SatSGP4Network.shell[1].satellite[*].mobility.typename = "SatelliteMobility"
SatSGP4Network.shell[1].groundStation[*].mobility.typename = "GroundStationMobility"

SatSGP4Network.shell[1].constraintAreaMinX = 0m
SatSGP4Network.shell[1].constraintAreaMaxX = 2160m

SatSGP4Network.shell[1].constraintAreaMinY = 0m
SatSGP4Network.shell[1].constraintAreaMaxY = 1080m

SatSGP4Network.shell[1].constraintAreaMinZ = 0m
SatSGP4Network.shell[1].constraintAreaMaxZ = 0m

## Routing settings
SatSGP4Network.shell[1].*.ipv4.typename = "LeoIpv4NetworkLayer"
SatSGP4Network.shell[1].*.ipv4.queue.packetCapacity = 5
SatSGP4Network.shell[1].*.ipv4.queuePopper.processingTime = 0ms
SatSGP4Network.shell[1].*.ipv4.arp.typename = "GlobalArp"
SatSGP4Network.shell[1].*.ipv4.routingTable.netmaskRoutes = ""

SatSGP4Network.shell[1].groundStation[*].mobility.initFromDisplayString = false
SatSGP4Network.shell[1].groundStation[*].mobility.updateFromDisplayString  = false
#
SatSGP4Network.shell[1].configurator.config = xml("<config><interface hosts='**' address='10.x.x.x' netmask='255.x.x.x'/><autoroute metric='delay'/></config>") #<autoroute metric='errorRate'/>
SatSGP4Network.shell[1].configurator.addStaticRoutes = true
SatSGP4Network.shell[1].configurator.optimizeRoutes = false
SatSGP4Network.shell[1].configurator.enableInterSatelliteLinks = true  #custom parameter
