[General]

[Config OrbitalShells]
network = SatSGP4Network
sim-time-limit = 1800s
SatSGP4Network.numOfShells = 2
SatSGP4Network.shell[0].shellIndex = 0
SatSGP4Network.shell[0].configurator.loadFiles = false

SatSGP4Network.shell[0].satellite[*].mobility.typename = "SatelliteMobility"
SatSGP4Network.shell[0].groundStation[*].mobility.typename = "GroundStationMobility"

SatSGP4Network.shell[0].constraintAreaMinX = 0m
SatSGP4Network.shell[0].constraintAreaMaxX = 2160m

SatSGP4Network.shell[0].constraintAreaMinY = 0m
SatSGP4Network.shell[0].constraintAreaMaxY = 1080m

SatSGP4Network.shell[0].constraintAreaMinZ = 0m
SatSGP4Network.shell[0].constraintAreaMaxZ = 0m

## Routing settings
SatSGP4Network.shell[0].*.ipv4.typename = "LeoIpv4NetworkLayer"
SatSGP4Network.shell[0].*.ipv4.queue.packetCapacity = 5
SatSGP4Network.shell[0].*.ipv4.queuePopper.processingTime = 0ms
SatSGP4Network.shell[0].*.ipv4.arp.typename = "GlobalArp"
SatSGP4Network.shell[0].*.ipv4.routingTable.netmaskRoutes = ""
#
SatSGP4Network.shell[0].groundStation[*].mobility.initFromDisplayString = false
SatSGP4Network.shell[0].groundStation[*].mobility.updateFromDisplayString  = false
#
### groundStation Settings - Sender Brighton
SatSGP4Network.shell[0].groundStation[0].numApps = 1
SatSGP4Network.shell[0].groundStation[0].app[0].typename = "PingApp"
SatSGP4Network.shell[0].groundStation[0].app[0].startTime = .0001s
SatSGP4Network.shell[0].groundStation[0].app[0].destAddr = "shell[0].groundStation[1]"
SatSGP4Network.shell[0].groundStation[0].app[0].sendInterval = 500ms

SatSGP4Network.shell[0].configurator.config = xml("<config><interface hosts='**' address='10.x.x.x' netmask='255.x.x.x'/><autoroute metric='delay'/></config>") #<autoroute metric='errorRate'/>
SatSGP4Network.shell[0].configurator.addStaticRoutes = true
SatSGP4Network.shell[0].configurator.optimizeRoutes = false
SatSGP4Network.shell[0].configurator.enableInterSatelliteLinks = true  #custom parameter

SatSGP4Network.shell[0].*.forwarding = true

SatSGP4Network.shell[0].visualizer.dataLinkVisualizer.packetFilter = "*"
SatSGP4Network.shell[0].visualizer.networkRouteVisualizer.displayRoutes = true
SatSGP4Network.shell[0].visualizer.networkRouteVisualizer.packetFilter = "*"##"UDPData*"
SatSGP4Network.shell[0].visualizer.routingTableVisualizer.destinationFilter = "*"#"satellite[125]"
SatSGP4Network.shell[0].visualizer.statisticVisualizer.sourceFilter = "**.app[*]"
SatSGP4Network.shell[0].visualizer.statisticVisualizer.signalName = "rtt"
SatSGP4Network.shell[0].visualizer.statisticVisualizer.unit = "s"

SatSGP4Network.shell[0].satellite[*].mobility.updateInterval = 15s
SatSGP4Network.shell[0].numOfSats = 625
SatSGP4Network.shell[0].satsPerPlane = 25
SatSGP4Network.shell[0].numOfPlanes = 25
SatSGP4Network.shell[0].numOfGS = 2
SatSGP4Network.shell[0].alt = 550
SatSGP4Network.shell[0].incl = 90
SatSGP4Network.shell[0].satellite[*].NoradModule.inclination = 90*0.0174533
SatSGP4Network.shell[0].satellite[*].NoradModule.altitude = 550

#groundstation definitions
SatSGP4Network.shell[0].groundStation[0].mobility.latitude = 38.9072
SatSGP4Network.shell[0].groundStation[0].mobility.longitude = -77.0369
SatSGP4Network.shell[0].groundStation[0].cityName = "Washington DC"

SatSGP4Network.shell[0].groundStation[1].mobility.latitude = 50.1109
SatSGP4Network.shell[0].groundStation[1].mobility.longitude = 8.6821
SatSGP4Network.shell[0].groundStation[1].cityName = "Frankfurt"

SatSGP4Network.shell[0].ppp[*].queue.typename = "DropTailQueue"
#**.ppp[*].ppp.queue.packetCapacity = 100
SatSGP4Network.shell[0].ppp[*].queue.packetCapacity = 100
SatSGP4Network.shell[0].ipv4.configurator.typename = "LeoIpv4NodeConfigurator"

SatSGP4Network.shell[0].satellite[*].NoradModule.satIndex = parentIndex()
SatSGP4Network.shell[0].satellite[*].NoradModule.satName = "sat"  #Doesnt matter in this instance
SatSGP4Network.shell[0].satellite[*].**.bitrate = 10Mbps

#Another Network
SatSGP4Network.shell[1].shellIndex = 1
SatSGP4Network.shell[1].configurator.loadFiles = false

SatSGP4Network.shell[1].satellite[*].mobility.typename = "SatelliteMobility"
SatSGP4Network.shell[1].groundStation[*].mobility.typename = "GroundStationMobility"

SatSGP4Network.shell[1].constraintAreaMinX = 0m
SatSGP4Network.shell[1].constraintAreaMaxX = 2160m

SatSGP4Network.shell[1].constraintAreaMinY = 0m
SatSGP4Network.shell[1].constraintAreaMaxY = 1080m

SatSGP4Network.shell[1].constraintAreaMinZ = 0m
SatSGP4Network.shell[1].constraintAreaMaxZ = 0m

## Routing settings
SatSGP4Network.shell[1].*.ipv4.typename = "LeoIpv4NetworkLayer"

SatSGP4Network.shell[1].*.ipv4.queue.packetCapacity = 5
SatSGP4Network.shell[1].*.ipv4.queuePopper.processingTime = 0ms
SatSGP4Network.shell[1].*.ipv4.arp.typename = "GlobalArp"
SatSGP4Network.shell[1].*.ipv4.routingTable.netmaskRoutes = ""
#

SatSGP4Network.shell[1].**.vector-recording = true
SatSGP4Network.shell[1].**.scalar-recording = true
SatSGP4Network.shell[1].groundStation[0].app[0].**.vector-recording = true

SatSGP4Network.shell[1].configurator.config = xml("<config><interface hosts='**' address='10.x.x.x' netmask='255.x.x.x'/><autoroute metric='delay'/></config>") #<autoroute metric='errorRate'/>
SatSGP4Network.shell[1].configurator.addStaticRoutes = true
SatSGP4Network.shell[1].configurator.optimizeRoutes = false
SatSGP4Network.shell[1].configurator.enableInterSatelliteLinks = true  #custom parameter

SatSGP4Network.shell[1].*.forwarding = true

SatSGP4Network.shell[1].visualizer.dataLinkVisualizer.packetFilter = "*"
SatSGP4Network.shell[1].visualizer.networkRouteVisualizer.displayRoutes = true
SatSGP4Network.shell[1].visualizer.networkRouteVisualizer.packetFilter = "*"##"UDPData*"
SatSGP4Network.shell[1].visualizer.routingTableVisualizer.destinationFilter = "*"#"satellite[125]"
SatSGP4Network.shell[1].visualizer.statisticVisualizer.sourceFilter = "**.app[*]"
SatSGP4Network.shell[1].visualizer.statisticVisualizer.signalName = "rtt"
SatSGP4Network.shell[1].visualizer.statisticVisualizer.unit = "s"

SatSGP4Network.shell[1].satellite[*].mobility.updateInterval = 15s
SatSGP4Network.shell[1].numOfSats = 625
SatSGP4Network.shell[1].satsPerPlane = 25
SatSGP4Network.shell[1].numOfPlanes = 25
SatSGP4Network.shell[1].numOfGS = 2
SatSGP4Network.shell[1].alt = 550
SatSGP4Network.shell[1].incl = 90
SatSGP4Network.shell[1].satellite[*].NoradModule.inclination = 90*0.0174533
SatSGP4Network.shell[1].satellite[*].NoradModule.altitude = 550

SatSGP4Network.shell[1].groundStation[0].mobility.latitude = 38.9072
SatSGP4Network.shell[1].groundStation[0].mobility.longitude = -77.0369
SatSGP4Network.shell[1].groundStation[0].cityName = "Washington DC2"

SatSGP4Network.shell[1].groundStation[1].mobility.latitude = 50.1109
SatSGP4Network.shell[1].groundStation[1].mobility.longitude = 8.6821
SatSGP4Network.shell[1].groundStation[1].cityName = "Frankfurt2"

SatSGP4Network.shell[1].ppp[*].queue.typename = "DropTailQueue"
SatSGP4Network.shell[1].ppp[*].queue.packetCapacity = 100
SatSGP4Network.shell[1].ipv4.configurator.typename = "LeoIpv4NodeConfigurator"

SatSGP4Network.shell[1].satellite[*].NoradModule.satIndex = parentIndex()
SatSGP4Network.shell[1].satellite[*].NoradModule.satName = "sat"  #Doesnt matter in this instance
SatSGP4Network.shell[1].satellite[*].**.bitrate = 10Mbps

#recording settings
SatSGP4Network.shell[0].groundStation[0].app[0].**.vector-recording = true
**.groundStation[0].ppp[4].queue.**.statistic-recording = true
**.groundStation[0]ppp[4].queue.**.scalar-recording = true
**.groundStation[0].ppp[4].queue.**.vector-recording = true


[Config OrbitalShellsExperiment]
network = SatSGP4Network
sim-time-limit = 5s
SatSGP4Network.numOfShells = 2
SatSGP4Network.shell[0].shellIndex = 0
SatSGP4Network.shell[0].configurator.loadFiles = false

SatSGP4Network.shell[0].satellite[*].mobility.typename = "SatelliteMobility"
SatSGP4Network.shell[0].groundStation[*].mobility.typename = "GroundStationMobility"

SatSGP4Network.shell[0].constraintAreaMinX = 0m
SatSGP4Network.shell[0].constraintAreaMaxX = 2160m

SatSGP4Network.shell[0].constraintAreaMinY = 0m
SatSGP4Network.shell[0].constraintAreaMaxY = 1080m

SatSGP4Network.shell[0].constraintAreaMinZ = 0m
SatSGP4Network.shell[0].constraintAreaMaxZ = 0m

## Routing settings
SatSGP4Network.shell[0].*.ipv4.typename = "LeoIpv4NetworkLayer"
SatSGP4Network.shell[0].*.ipv4.queue.packetCapacity = 5
SatSGP4Network.shell[0].*.ipv4.queuePopper.processingTime = 0ms
SatSGP4Network.shell[0].*.ipv4.arp.typename = "GlobalArp"
SatSGP4Network.shell[0].*.ipv4.routingTable.netmaskRoutes = ""
#
SatSGP4Network.shell[0].groundStation[*].mobility.initFromDisplayString = false
SatSGP4Network.shell[0].groundStation[*].mobility.updateFromDisplayString  = false
#
### groundStation Settings - Sender Brighton
SatSGP4Network.shell[0].groundStation[0].numApps = 1
SatSGP4Network.shell[0].groundStation[0].app[0].typename = "PingApp"
SatSGP4Network.shell[0].groundStation[0].app[0].startTime = .0001s
SatSGP4Network.shell[0].groundStation[0].app[0].destAddr = "shell[0].groundStation[1]"
SatSGP4Network.shell[0].groundStation[0].app[0].sendInterval = 500ms

SatSGP4Network.shell[0].configurator.config = xml("<config><interface hosts='**' address='10.x.x.x' netmask='255.x.x.x'/><autoroute metric='delay'/></config>") #<autoroute metric='errorRate'/>
SatSGP4Network.shell[0].configurator.addStaticRoutes = true
SatSGP4Network.shell[0].configurator.optimizeRoutes = false
SatSGP4Network.shell[0].configurator.enableInterSatelliteLinks = true  #custom parameter

SatSGP4Network.shell[0].*.forwarding = true

SatSGP4Network.shell[0].visualizer.dataLinkVisualizer.packetFilter = "*"
SatSGP4Network.shell[0].visualizer.networkRouteVisualizer.displayRoutes = true
SatSGP4Network.shell[0].visualizer.networkRouteVisualizer.packetFilter = "*"##"UDPData*"
SatSGP4Network.shell[0].visualizer.routingTableVisualizer.destinationFilter = "*"#"satellite[125]"
SatSGP4Network.shell[0].visualizer.statisticVisualizer.sourceFilter = "**.app[*]"
SatSGP4Network.shell[0].visualizer.statisticVisualizer.signalName = "rtt"
SatSGP4Network.shell[0].visualizer.statisticVisualizer.unit = "s"

SatSGP4Network.shell[0].satellite[*].mobility.updateInterval = 15s
SatSGP4Network.shell[0].numOfSats = 625
SatSGP4Network.shell[0].satsPerPlane = 25
SatSGP4Network.shell[0].numOfPlanes = 25
SatSGP4Network.shell[0].numOfGS = 2
SatSGP4Network.shell[0].alt = 550
SatSGP4Network.shell[0].incl = 90
SatSGP4Network.shell[0].satellite[*].NoradModule.inclination = 90*0.0174533
SatSGP4Network.shell[0].satellite[*].NoradModule.altitude = 550

#groundstation definitions
SatSGP4Network.shell[0].groundStation[0].mobility.latitude = 38.9072
SatSGP4Network.shell[0].groundStation[0].mobility.longitude = -77.0369
SatSGP4Network.shell[0].groundStation[0].cityName = "Washington DC"

SatSGP4Network.shell[0].groundStation[1].mobility.latitude = 50.1109
SatSGP4Network.shell[0].groundStation[1].mobility.longitude = 8.6821
SatSGP4Network.shell[0].groundStation[1].cityName = "Frankfurt"

SatSGP4Network.shell[0].ppp[*].queue.typename = "DropTailQueue"
#**.ppp[*].ppp.queue.packetCapacity = 100
SatSGP4Network.shell[0].ppp[*].queue.packetCapacity = 100
SatSGP4Network.shell[0].ipv4.configurator.typename = "LeoIpv4NodeConfigurator"

SatSGP4Network.shell[0].satellite[*].NoradModule.satIndex = parentIndex()
SatSGP4Network.shell[0].satellite[*].NoradModule.satName = "sat"  #Doesnt matter in this instance
SatSGP4Network.shell[0].satellite[*].**.bitrate = 10Mbps

#Another Network
SatSGP4Network.shell[1].shellIndex = 1
SatSGP4Network.shell[1].configurator.loadFiles = false

SatSGP4Network.shell[1].satellite[*].mobility.typename = "SatelliteMobility"
SatSGP4Network.shell[1].groundStation[*].mobility.typename = "GroundStationMobility"

SatSGP4Network.shell[1].constraintAreaMinX = 0m
SatSGP4Network.shell[1].constraintAreaMaxX = 2160m

SatSGP4Network.shell[1].constraintAreaMinY = 0m
SatSGP4Network.shell[1].constraintAreaMaxY = 1080m

SatSGP4Network.shell[1].constraintAreaMinZ = 0m
SatSGP4Network.shell[1].constraintAreaMaxZ = 0m

## Routing settings
SatSGP4Network.shell[1].*.ipv4.typename = "LeoIpv4NetworkLayer"

SatSGP4Network.shell[1].*.ipv4.queue.packetCapacity = 5
SatSGP4Network.shell[1].*.ipv4.queuePopper.processingTime = 0ms
SatSGP4Network.shell[1].*.ipv4.arp.typename = "GlobalArp"
SatSGP4Network.shell[1].*.ipv4.routingTable.netmaskRoutes = ""
#

SatSGP4Network.shell[1].**.vector-recording = true
SatSGP4Network.shell[1].**.scalar-recording = true
SatSGP4Network.shell[1].groundStation[0].app[0].**.vector-recording = true

SatSGP4Network.shell[1].configurator.config = xml("<config><interface hosts='**' address='10.x.x.x' netmask='255.x.x.x'/><autoroute metric='delay'/></config>") #<autoroute metric='errorRate'/>
SatSGP4Network.shell[1].configurator.addStaticRoutes = true
SatSGP4Network.shell[1].configurator.optimizeRoutes = false
SatSGP4Network.shell[1].configurator.enableInterSatelliteLinks = true  #custom parameter

SatSGP4Network.shell[1].*.forwarding = true

SatSGP4Network.shell[1].visualizer.dataLinkVisualizer.packetFilter = "*"
SatSGP4Network.shell[1].visualizer.networkRouteVisualizer.displayRoutes = true
SatSGP4Network.shell[1].visualizer.networkRouteVisualizer.packetFilter = "*"##"UDPData*"
SatSGP4Network.shell[1].visualizer.routingTableVisualizer.destinationFilter = "*"#"satellite[125]"
SatSGP4Network.shell[1].visualizer.statisticVisualizer.sourceFilter = "**.app[*]"
SatSGP4Network.shell[1].visualizer.statisticVisualizer.signalName = "rtt"
SatSGP4Network.shell[1].visualizer.statisticVisualizer.unit = "s"

SatSGP4Network.shell[1].satellite[*].mobility.updateInterval = 15s
SatSGP4Network.shell[1].numOfSats = 625
SatSGP4Network.shell[1].satsPerPlane = 25
SatSGP4Network.shell[1].numOfPlanes = 25
SatSGP4Network.shell[1].numOfGS = 2
SatSGP4Network.shell[1].alt = 550
SatSGP4Network.shell[1].incl = 90
SatSGP4Network.shell[1].satellite[*].NoradModule.inclination = 90*0.0174533
SatSGP4Network.shell[1].satellite[*].NoradModule.altitude = 550

SatSGP4Network.shell[1].groundStation[0].mobility.latitude = 38.9072
SatSGP4Network.shell[1].groundStation[0].mobility.longitude = -77.0369
SatSGP4Network.shell[1].groundStation[0].cityName = "Washington DC2"

SatSGP4Network.shell[1].groundStation[1].mobility.latitude = 50.1109
SatSGP4Network.shell[1].groundStation[1].mobility.longitude = 8.6821
SatSGP4Network.shell[1].groundStation[1].cityName = "Frankfurt2"

SatSGP4Network.shell[ 1].ppp[*].queue.typename = "DropTailQueue"
SatSGP4Network.shell[1].ppp[*].queue.packetCapacity = 100
SatSGP4Network.shell[1].ipv4.configurator.typename = "LeoIpv4NodeConfigurator"

SatSGP4Network.shell[1].satellite[*].NoradModule.satIndex = parentIndex()
SatSGP4Network.shell[1].satellite[*].NoradModule.satName = "sat"  #Doesnt matter in this instance
SatSGP4Network.shell[1].satellite[*].**.bitrate = 10Mbps

#recording settings
SatSGP4Network.shell[0].groundStation[0].app[0].**.vector-recording = true
**.groundStation[0].ppp[4].queue.**.statistic-recording = true
**.groundStation[0]ppp[4].queue.**.scalar-recording = true
**.groundStation[0].ppp[4].queue.**.vector-recording = true

[Config CrossTraffic25x25]

network = SatSGP4Network
sim-time-limit = 30s
SatSGP4Network.numOfShells = 1
SatSGP4Network.shell[0].shellIndex = 0
SatSGP4Network.shell[0].configurator.loadFiles = false

SatSGP4Network.shell[0].satellite[*].mobility.typename = "SatelliteMobility"
SatSGP4Network.shell[0].groundStation[*].mobility.typename = "GroundStationMobility"

SatSGP4Network.shell[0].constraintAreaMinX = 0m
SatSGP4Network.shell[0].constraintAreaMaxX = 2160m

SatSGP4Network.shell[0].constraintAreaMinY = 0m
SatSGP4Network.shell[0].constraintAreaMaxY = 1080m

SatSGP4Network.shell[0].constraintAreaMinZ = 0m
SatSGP4Network.shell[0].constraintAreaMaxZ = 0m

## Routing settings
SatSGP4Network.shell[0].*.ipv4.typename = "LeoIpv4NetworkLayer"
SatSGP4Network.shell[0].*.ipv4.queue.packetCapacity = 5
SatSGP4Network.shell[0].*.ipv4.queuePopper.processingTime = 0ms
SatSGP4Network.shell[0].*.ipv4.arp.typename = "GlobalArp"
SatSGP4Network.shell[0].*.ipv4.routingTable.netmaskRoutes = ""
#
SatSGP4Network.shell[0].groundStation[*].mobility.initFromDisplayString = false
SatSGP4Network.shell[0].groundStation[*].mobility.updateFromDisplayString  = false
#

SatSGP4Network.shell[0].configurator.config = xml("<config><interface hosts='**' address='10.x.x.x' netmask='255.x.x.x'/><autoroute metric='delay'/></config>") #<autoroute metric='errorRate'/>
SatSGP4Network.shell[0].configurator.addStaticRoutes = true
SatSGP4Network.shell[0].configurator.optimizeRoutes = false
SatSGP4Network.shell[0].configurator.enableInterSatelliteLinks = true  #custom parameter

SatSGP4Network.shell[0].*.forwarding = true

SatSGP4Network.shell[0].visualizer.dataLinkVisualizer.packetFilter = "*"
SatSGP4Network.shell[0].visualizer.networkRouteVisualizer.displayRoutes = true
SatSGP4Network.shell[0].visualizer.networkRouteVisualizer.packetFilter = "*"##"UDPData*"
SatSGP4Network.shell[0].visualizer.routingTableVisualizer.destinationFilter = "*"#"satellite[125]"
SatSGP4Network.shell[0].visualizer.statisticVisualizer.sourceFilter = "**.app[*]"
SatSGP4Network.shell[0].visualizer.statisticVisualizer.signalName = "rtt"
SatSGP4Network.shell[0].visualizer.statisticVisualizer.unit = "s"


SatSGP4Network.shell[0].ppp[*].queue.typename = "DropTailQueue"
SatSGP4Network.shell[0].ppp[*].queue.packetCapacity = 100
SatSGP4Network.shell[0].ipv4.configurator.typename = "LeoIpv4NodeConfigurator"

SatSGP4Network.shell[0].satellite[*].NoradModule.satIndex = parentIndex()
SatSGP4Network.shell[0].satellite[*].NoradModule.satName = "sat"  #Doesnt matter in this instance
SatSGP4Network.shell[0].satellite[*].**.bitrate = 10Mbps

SatSGP4Network.shell[0].satellite[*].mobility.updateInterval = 15s
SatSGP4Network.shell[0].numOfSats = 625
SatSGP4Network.shell[0].satsPerPlane = 25
SatSGP4Network.shell[0].numOfPlanes = 25
SatSGP4Network.shell[0].numOfGS = 5
SatSGP4Network.shell[0].alt = 550
SatSGP4Network.shell[0].incl = 90
SatSGP4Network.shell[0].satellite[*].NoradModule.inclination = 90*0.0174533
SatSGP4Network.shell[0].satellite[*].NoradModule.altitude = 550

SatSGP4Network.shell[0].**.vector-recording = true
SatSGP4Network.shell[0].**.scalar-recording = true

#groundstation definitions
SatSGP4Network.shell[0].groundStation[0].mobility.latitude = 38.9072
SatSGP4Network.shell[0].groundStation[0].mobility.longitude = -77.0369
SatSGP4Network.shell[0].groundStation[0].cityName = "Washington DC"

#groundstation definitions
SatSGP4Network.shell[0].groundStation[1].mobility.latitude = 18.9072
SatSGP4Network.shell[0].groundStation[1].mobility.longitude = -77.0369
SatSGP4Network.shell[0].groundStation[1].cityName = "Washington DC1"

#groundstation definitions
SatSGP4Network.shell[0].groundStation[2].mobility.latitude = 18.9072
SatSGP4Network.shell[0].groundStation[2].mobility.longitude = -77.0369
SatSGP4Network.shell[0].groundStation[2].cityName = "Washington DC2"
#
##groundstation definitions
SatSGP4Network.shell[0].groundStation[3].mobility.latitude = 28.9072
SatSGP4Network.shell[0].groundStation[3].mobility.longitude = -77.0369
SatSGP4Network.shell[0].groundStation[3].cityName = "Washington DC3"

#groundstation definitions
SatSGP4Network.shell[0].groundStation[4].mobility.latitude = 28.9072
SatSGP4Network.shell[0].groundStation[4].mobility.longitude = -77.0369
SatSGP4Network.shell[0].groundStation[4].cityName = "Washington DC4"


### groundStation Settings - Sender Brighton
SatSGP4Network.shell[0].groundStation[1].numApps = 1
SatSGP4Network.shell[0].groundStation[1].app[0].typename = "PingApp"
SatSGP4Network.shell[0].groundStation[1].app[0].startTime = .0001s
SatSGP4Network.shell[0].groundStation[1].app[0].destAddr = "shell[0].groundStation[0]"
SatSGP4Network.shell[0].groundStation[1].app[0].sendInterval = .1ms


### groundStation Settings - Sender Brighton
SatSGP4Network.shell[0].groundStation[2].numApps = 1
SatSGP4Network.shell[0].groundStation[2].app[0].typename = "PingApp"
SatSGP4Network.shell[0].groundStation[2].app[0].startTime = .0001s
SatSGP4Network.shell[0].groundStation[2].app[0].destAddr = "shell[0].groundStation[0]"
SatSGP4Network.shell[0].groundStation[2].app[0].sendInterval = .1ms
#
#### groundStation Settings - Sender Brighton
SatSGP4Network.shell[0].groundStation[3].numApps = 1
SatSGP4Network.shell[0].groundStation[3].app[0].typename = "PingApp"
SatSGP4Network.shell[0].groundStation[3].app[0].startTime = .0001s
SatSGP4Network.shell[0].groundStation[3].app[0].destAddr = "shell[0].groundStation[0]"
SatSGP4Network.shell[0].groundStation[3].app[0].sendInterval = .1ms

### groundStation Settings - Sender Brighton
SatSGP4Network.shell[0].groundStation[4].numApps = 1
SatSGP4Network.shell[0].groundStation[4].app[0].typename = "PingApp"
SatSGP4Network.shell[0].groundStation[4].app[0].startTime = .0001s
SatSGP4Network.shell[0].groundStation[4].app[0].destAddr = "shell[0].groundStation[0]"
SatSGP4Network.shell[0].groundStation[4].app[0].sendInterval = .1ms


[Config CrossTraffic25x25Experiment]

network = SatSGP4Network
sim-time-limit = 30s
SatSGP4Network.numOfShells = 1
SatSGP4Network.shell[0].shellIndex = 0
SatSGP4Network.shell[0].configurator.loadFiles = false

SatSGP4Network.shell[0].satellite[*].mobility.typename = "SatelliteMobility"
SatSGP4Network.shell[0].groundStation[*].mobility.typename = "GroundStationMobility"

SatSGP4Network.shell[0].constraintAreaMinX = 0m
SatSGP4Network.shell[0].constraintAreaMaxX = 2160m

SatSGP4Network.shell[0].constraintAreaMinY = 0m
SatSGP4Network.shell[0].constraintAreaMaxY = 1080m

SatSGP4Network.shell[0].constraintAreaMinZ = 0m
SatSGP4Network.shell[0].constraintAreaMaxZ = 0m

## Routing settings
SatSGP4Network.shell[0].*.ipv4.typename = "LeoIpv4NetworkLayer"
SatSGP4Network.shell[0].*.ipv4.queue.packetCapacity = 5
SatSGP4Network.shell[0].*.ipv4.queuePopper.processingTime = 0ms
SatSGP4Network.shell[0].*.ipv4.arp.typename = "GlobalArp"
SatSGP4Network.shell[0].*.ipv4.routingTable.netmaskRoutes = ""
#
SatSGP4Network.shell[0].groundStation[*].mobility.initFromDisplayString = false
SatSGP4Network.shell[0].groundStation[*].mobility.updateFromDisplayString  = false
#

SatSGP4Network.shell[0].configurator.config = xml("<config><interface hosts='**' address='10.x.x.x' netmask='255.x.x.x'/><autoroute metric='delay'/></config>") #<autoroute metric='errorRate'/>
SatSGP4Network.shell[0].configurator.addStaticRoutes = true
SatSGP4Network.shell[0].configurator.optimizeRoutes = false
SatSGP4Network.shell[0].configurator.enableInterSatelliteLinks = true  #custom parameter

SatSGP4Network.shell[0].*.forwarding = true

SatSGP4Network.shell[0].visualizer.dataLinkVisualizer.packetFilter = "*"
SatSGP4Network.shell[0].visualizer.networkRouteVisualizer.displayRoutes = true
SatSGP4Network.shell[0].visualizer.networkRouteVisualizer.packetFilter = "*"##"UDPData*"
SatSGP4Network.shell[0].visualizer.routingTableVisualizer.destinationFilter = "*"#"satellite[125]"
SatSGP4Network.shell[0].visualizer.statisticVisualizer.sourceFilter = "**.app[*]"
SatSGP4Network.shell[0].visualizer.statisticVisualizer.signalName = "rtt"
SatSGP4Network.shell[0].visualizer.statisticVisualizer.unit = "s"


SatSGP4Network.shell[0].ppp[*].queue.typename = "DropTailQueue"
SatSGP4Network.shell[0].ppp[*].queue.packetCapacity = 100
SatSGP4Network.shell[0].ipv4.configurator.typename = "LeoIpv4NodeConfigurator"

SatSGP4Network.shell[0].satellite[*].NoradModule.satIndex = parentIndex()
SatSGP4Network.shell[0].satellite[*].NoradModule.satName = "sat"  #Doesnt matter in this instance
SatSGP4Network.shell[0].satellite[*].**.bitrate = 10Mbps

SatSGP4Network.shell[0].satellite[*].mobility.updateInterval = 15s
SatSGP4Network.shell[0].numOfSats = 625
SatSGP4Network.shell[0].satsPerPlane = 25
SatSGP4Network.shell[0].numOfPlanes = 25
SatSGP4Network.shell[0].numOfGS = 5
SatSGP4Network.shell[0].alt = 550
SatSGP4Network.shell[0].incl = 90
SatSGP4Network.shell[0].satellite[*].NoradModule.inclination = 90*0.0174533
SatSGP4Network.shell[0].satellite[*].NoradModule.altitude = 550

SatSGP4Network.shell[0].**.vector-recording = true
SatSGP4Network.shell[0].**.scalar-recording = true

#groundstation definitions
SatSGP4Network.shell[0].groundStation[0].mobility.latitude = 38.9072
SatSGP4Network.shell[0].groundStation[0].mobility.longitude = -77.0369
SatSGP4Network.shell[0].groundStation[0].cityName = "Washington DC"

#groundstation definitions
SatSGP4Network.shell[0].groundStation[1].mobility.latitude = 18.9072
SatSGP4Network.shell[0].groundStation[1].mobility.longitude = -77.0369
SatSGP4Network.shell[0].groundStation[1].cityName = "Washington DC1"

#groundstation definitions
SatSGP4Network.shell[0].groundStation[2].mobility.latitude = 18.9072
SatSGP4Network.shell[0].groundStation[2].mobility.longitude = -77.0369
SatSGP4Network.shell[0].groundStation[2].cityName = "Washington DC2"
#
##groundstation definitions
SatSGP4Network.shell[0].groundStation[3].mobility.latitude = 28.9072
SatSGP4Network.shell[0].groundStation[3].mobility.longitude = -77.0369
SatSGP4Network.shell[0].groundStation[3].cityName = "Washington DC3"

#groundstation definitions
SatSGP4Network.shell[0].groundStation[4].mobility.latitude = 28.9072
SatSGP4Network.shell[0].groundStation[4].mobility.longitude = -77.0369
SatSGP4Network.shell[0].groundStation[4].cityName = "Washington DC4"


### groundStation Settings - Sender Brighton
SatSGP4Network.shell[0].groundStation[1].numApps = 1
SatSGP4Network.shell[0].groundStation[1].app[0].typename = "PingApp"
SatSGP4Network.shell[0].groundStation[1].app[0].startTime = .0001s
SatSGP4Network.shell[0].groundStation[1].app[0].destAddr = "shell[0].groundStation[0]"
SatSGP4Network.shell[0].groundStation[1].app[0].packetSize  = 1Mb
SatSGP4Network.shell[0].groundStation[1].app[0].sendInterval = 1s


### groundStation Settings - Sender Brighton
SatSGP4Network.shell[0].groundStation[2].numApps = 1
SatSGP4Network.shell[0].groundStation[2].app[0].typename = "PingApp"
SatSGP4Network.shell[0].groundStation[2].app[0].startTime = .0001s
SatSGP4Network.shell[0].groundStation[2].app[0].destAddr = "shell[0].groundStation[0]"
SatSGP4Network.shell[0].groundStation[2].app[0].packetSize  = 1Mb
SatSGP4Network.shell[0].groundStation[2].app[0].sendInterval = 1s
#
#### groundStation Settings - Sender Brighton
SatSGP4Network.shell[0].groundStation[3].numApps = 1
SatSGP4Network.shell[0].groundStation[3].app[0].typename = "PingApp"
SatSGP4Network.shell[0].groundStation[3].app[0].startTime = .0001s
SatSGP4Network.shell[0].groundStation[3].app[0].destAddr = "shell[0].groundStation[0]"
SatSGP4Network.shell[0].groundStation[3].app[0].packetSize  = 1Mb
SatSGP4Network.shell[0].groundStation[3].app[0].sendInterval = 1s

### groundStation Settings - Sender Brighton
SatSGP4Network.shell[0].groundStation[4].numApps = 1
SatSGP4Network.shell[0].groundStation[4].app[0].typename = "PingApp"
SatSGP4Network.shell[0].groundStation[4].app[0].startTime = .0001s
SatSGP4Network.shell[0].groundStation[4].app[0].destAddr = "shell[0].groundStation[0]"
SatSGP4Network.shell[0].groundStation[3].app[0].packetSize  = 1Mb
SatSGP4Network.shell[0].groundStation[4].app[0].sendInterval = 1s
 
[Config CrossTraffic30x30Experiment]

network = SatSGP4Network
sim-time-limit = 30s
SatSGP4Network.numOfShells = 1
SatSGP4Network.shell[0].shellIndex = 0
SatSGP4Network.shell[0].configurator.loadFiles = false

SatSGP4Network.shell[0].satellite[*].mobility.typename = "SatelliteMobility"
SatSGP4Network.shell[0].groundStation[*].mobility.typename = "GroundStationMobility"

SatSGP4Network.shell[0].constraintAreaMinX = 0m
SatSGP4Network.shell[0].constraintAreaMaxX = 2160m

SatSGP4Network.shell[0].constraintAreaMinY = 0m
SatSGP4Network.shell[0].constraintAreaMaxY = 1080m

SatSGP4Network.shell[0].constraintAreaMinZ = 0m
SatSGP4Network.shell[0].constraintAreaMaxZ = 0m

## Routing settings
SatSGP4Network.shell[0].*.ipv4.typename = "LeoIpv4NetworkLayer"
SatSGP4Network.shell[0].*.ipv4.queue.packetCapacity = 5
SatSGP4Network.shell[0].*.ipv4.queuePopper.processingTime = 0ms
SatSGP4Network.shell[0].*.ipv4.arp.typename = "GlobalArp"
SatSGP4Network.shell[0].*.ipv4.routingTable.netmaskRoutes = ""
#
SatSGP4Network.shell[0].groundStation[*].mobility.initFromDisplayString = false
SatSGP4Network.shell[0].groundStation[*].mobility.updateFromDisplayString  = false
#

SatSGP4Network.shell[0].configurator.config = xml("<config><interface hosts='**' address='10.x.x.x' netmask='255.x.x.x'/><autoroute metric='delay'/></config>") #<autoroute metric='errorRate'/>
SatSGP4Network.shell[0].configurator.addStaticRoutes = true
SatSGP4Network.shell[0].configurator.optimizeRoutes = false
SatSGP4Network.shell[0].configurator.enableInterSatelliteLinks = true  #custom parameter

SatSGP4Network.shell[0].*.forwarding = true

SatSGP4Network.shell[0].visualizer.dataLinkVisualizer.packetFilter = "*"
SatSGP4Network.shell[0].visualizer.networkRouteVisualizer.displayRoutes = true
SatSGP4Network.shell[0].visualizer.networkRouteVisualizer.packetFilter = "*"##"UDPData*"
SatSGP4Network.shell[0].visualizer.routingTableVisualizer.destinationFilter = "*"#"satellite[125]"
SatSGP4Network.shell[0].visualizer.statisticVisualizer.sourceFilter = "**.app[*]"
SatSGP4Network.shell[0].visualizer.statisticVisualizer.signalName = "rtt"
SatSGP4Network.shell[0].visualizer.statisticVisualizer.unit = "s"


SatSGP4Network.shell[0].ppp[*].queue.typename = "DropTailQueue"
SatSGP4Network.shell[0].ppp[*].queue.packetCapacity = 100
SatSGP4Network.shell[0].ipv4.configurator.typename = "LeoIpv4NodeConfigurator"

SatSGP4Network.shell[0].satellite[*].NoradModule.satIndex = parentIndex()
SatSGP4Network.shell[0].satellite[*].NoradModule.satName = "sat"  #Doesnt matter in this instance
SatSGP4Network.shell[0].satellite[*].**.bitrate = 10Mbps

SatSGP4Network.shell[0].satellite[*].mobility.updateInterval = 15s
SatSGP4Network.shell[0].numOfSats = 900
SatSGP4Network.shell[0].satsPerPlane = 30
SatSGP4Network.shell[0].numOfPlanes = 30
SatSGP4Network.shell[0].numOfGS = 5